108

C 12.866619754735444 8.499225875973709 1.9894806565442849
C 6.92088810135543 17.882823050287225 12.4161115394075
C 9.334047779385376 5.884364210039416 6.822095971751466
C 13.892807930166503 0.7727982910938003 9.057572580115046
C 14.197140083591862 13.848619765306633 17.400411892415118
C 9.303210325424251 2.6335964946017256 1.2257469461287447
C 2.3913329416736335 3.325898714188245 2.2272001254079785
C 2.722462623521144 1.035235823055887 13.159231125148377
C 10.764154868319757 14.799017312844668 10.576452290742358
C 9.135748518577689 0.08716766513333951 9.147082141880102
C 10.787885259602666 13.679912945647436 5.820503352612775
C 11.372706404481342 0.16029580543028343 4.809739561101102
C 10.872965355968145 16.968012414892073 16.445619876406454
C 1.9700309548519699 10.214561474891909 6.475473328172695
C 2.0950546700618595 0.5678068634616997 4.806509670831607
C 17.67523871286827 3.7276558128684427 7.1712343750024985
C 5.312593474230155 10.825412996168481 5.198259864829977
C 16.75672213524657 6.2186504007064585 16.443150891754865
C 4.254236970226191 10.175406746562059 11.569075524558476
C 1.4243294599952037 14.2162351617127 16.229301822159083
C 17.41433091181932 10.281072400758749 16.540008347297384
C 14.763809720765915 5.2859183884796295 9.705320261031723
C 13.59213170947299 11.236326565910803 11.161915096039717
C 13.491270273544652 10.730593416494784 15.717863279433503
C 13.94054544987428 15.722520188256567 3.080128624547984
C 17.67437939775899 16.435955458302736 6.506444637334615
C 13.029904165085119 2.96346088791434 11.982370192437116
C 4.632347058683774 14.786651974818795 12.510929798281365
C 1.5805140395880906 13.807192266043248 11.054120424601425
C 9.39436850777324 8.663428815423611 2.130975610848731
C 5.945927563911559 1.8356786977044082 8.478944935817003
C 1.4268889525776245 4.675694505260079 11.003148028458027
C 4.971962650815657 16.49036684297322 6.257949338962056
C 5.855141066384987 13.010882951095974 17.518042358045147
C 0.15922973424799558 15.951664698242736 1.0306682807705068
C 6.027732820519453 3.9236422832887032 2.609276638659326
C 7.742795005547672 7.2551313166395115 12.579143023207177
C 2.5021637210323098 6.4185127490299605 6.821776392459528
C 8.649528398386138 4.344507310526824 14.54868975173906
C 16.912498125730345 4.659761529008281 2.264800747980509
C 6.432437718397699 4.96847295590817 9.963662857637464
C 3.5265725677085937 13.179904415402252 2.099423486970843
C 16.412214176854377 7.504813927783221 12.274423899754371
C 14.776268867369044 17.29795272301941 11.99398178343016
C 12.138417111320228 7.569954308288917 15.206936303457917
C 6.646051277895926 8.701378315718593 9.227946237608409
C 8.844162200498477 16.463168470738374 2.9334070911126937
C 15.912637980942467 12.227440149844117 2.1491552729246677
C 16.67462558852425 1.0877188166189744 0.640822096786396
C 4.72491178287795 9.501688464475423 17.517952764685695
C 1.8316356004248189 8.046259672048361 3.45505084960923
C 16.576241042080532 2.0496108219180997 10.78112928709666
C 4.023241052185657 5.17054769828445 13.511546624520962
C 13.303916681733904 3.5246924837517355 1.6586511253603258
C 9.825339892897189 10.713517358194638 10.7041287666105
C 9.861263808104958 11.173893237818739 15.710080793188455
C 16.58668740251764 12.211963517958322 6.856764317711231
C 16.702131996733197 11.607968920753745 12.782651279139571
C 8.068072719045261 8.166752964357157 16.265295342207033
C 7.347174611457038 1.4693465903199494 4.94397969156107
C 8.64268080039498 13.026483302052641 2.927885317939703
C 13.091674798663336 9.157626178529371 8.45312583750436
C 13.38270346029291 5.84296718026226 6.562208899073699
C 11.722698511245387 8.004304972418822 11.661696588664194
C 4.735494983177606 12.741269213254732 8.81339359963706
C 14.914852623907672 3.208173804525373 16.190251437838516
C 6.08769129463338 5.681574048380024 17.522766678608782
C 16.36323474927661 14.47161005047587 9.603074494737259
C 17.026188179814355 8.570071481338266 9.087519812570754
C 13.695907951769483 13.731710111748669 13.974043965967159
C 17.0800870167346 14.994572289778533 13.043396367096024
C 2.1503949745249686 11.231248772927524 14.489108284728665
C 6.172855694163035 11.157885525022358 14.304386342439244
C 1.6825905859150283 7.942328158391922 13.4071919342134
C 17.59965925498555 3.635278947265379 13.805061073201445
C 16.744135777836398 0.34073984685900816 14.92615163740552
C 2.2015114368679685 7.1839734689440595 17.838679232618613
C 9.93206075606542 9.850805239344458 6.3791497120914595
C 4.975101513632128 7.280652767925297 4.652215438452151
C 17.284635278281506 6.894606465018223 5.610420018679297
C 5.852919652866203 16.36350033038896 9.564282211913266
C 3.4431397982866048 16.660571073804373 2.1395343735078316
C 0.5013113970672427 13.94414165909584 3.976649195569556
C 9.239233980339316 3.4047837287218448 11.196489452532852
C 11.491522052771089 3.2903891831174015 16.320532737461196
C 3.743204979878941 7.096836696307463 10.085012578980336
C 15.863219274596824 1.4740418923312582 4.033125288322429
C 1.7110240506560488 13.599238059189442 7.263344886662541
C 4.755382827545578 3.8876905195985234 5.972920091777871
C 7.535258225158555 13.641953805215142 10.973979895905908
C 13.879330513940559 15.594133813744913 6.772179920907712
C 7.172404422656505 13.930602426159004 6.737124898809218
C 2.15647200404335 16.860409577163875 9.110646449735404
C 1.6194709797469735 0.7875983475655646 16.72481808229638
C 10.624715513272525 0.6058804232076913 13.171561725729154
C 5.337767318689477 1.1616155084395725 0.09573804714193046
C 2.885286823136421 4.032200417746383 16.75175153429115
C 3.827667727759888 16.501359831186495 15.413682322613635
C 9.443005023589853 13.921773684046729 17.707060504146224
C 11.036708798778522 2.5661599070572816 7.553701669848833
C 10.832130671994515 6.232705808173093 0.1637609548143213
C 9.131267474572926 14.650982927855022 14.030501237254763
C 8.176722363027135 1.2441328381366348 15.924176122636132
C 13.22711396692018 0.09508952774265222 0.7119230078498209
C 13.279627481556822 10.456541940643351 5.162070859110296
C 9.059424381671187 5.264846170295401 3.4057851306234976
C 11.816196525880157 11.837815139006253 0.9935695216291553
C 16.53933564999921 8.613631708575523 1.5185459534375612
