108

C 12.755715717250888 7.600122577423701 1.1092281991292545
C 7.087763977049136 17.82988918920027 12.145291753713716
C 9.96481234963853 6.7503711706439615 8.052295605122703
C 13.918432408662202 1.2012804229454295 8.285302183453103
C 13.428111575840557 14.3187700637581 18.122220054692527
C 9.88268762135196 1.8664468890765102 1.679754190740933
C 2.1179189573732846 3.7615094651536993 1.5600736249902258
C 1.501678871070032 0.9875185485868343 13.264216390858804
C 11.167603735043441 14.880550186727726 11.09313075796104
C 10.115607284003888 -0.07156976070899712 8.954057943750557
C 11.689545817639846 13.202680995908128 4.71238816048629
C 11.685751292975374 0.28169816796435776 5.133112587074866
C 11.73947881351891 16.70740433891082 15.83632252397988
C 1.8515518414951277 9.94309013848088 6.955903422611052
C 0.8087139692214502 1.3140096783023467 4.251449508397885
C 16.992401294635897 3.1749709905830996 7.206845886807104
C 5.784554306260622 10.430650863078895 5.32489854145787
C 16.351702846992062 7.50405630441361 16.029318270646897
C 4.837542137105312 10.338701596271807 11.840841085694898
C 1.687176160741826 14.832422802227187 16.5780977880891
C 18.1398201377198 10.830438928723005 17.359096724591616
C 14.391478712271557 4.819947956214374 9.46324922307862
C 13.465723284905343 10.290172129351065 12.099088895522643
C 14.395561756002502 10.607709503799043 16.812193296998476
C 14.411405992210973 15.730535927805057 3.8342939318426716
C 16.828163732369223 17.059690799111273 6.747014391095874
C 13.571919174420989 3.311287024237042 12.8947332207555
C 5.032196402404521 14.146678033917066 12.74846534417537
C 1.6996890506190339 12.890852084454867 11.105818247298078
C 9.196690082165606 8.42096289464305 2.4356684359248755
C 6.706930580199494 1.7395417521868923 8.644424223747508
C 0.1437228422669828 5.287037455425507 10.420925224933724
C 3.389422879325603 17.277063093705046 6.365797533676232
C 5.449161875541446 13.595053277322622 16.564177237492515
C -1.2562432035180282 16.285812796630807 0.7267497664934953
C 6.819807248394603 4.311916122102711 2.446719208452737
C 8.133604588907243 8.193991048954672 12.186972618671644
C 1.4849148278719624 6.001634264182647 6.888562574983738
C 9.086093932395357 5.104888893115834 14.306731593954257
C 16.975058193872613 4.82383980883193 3.6511310657324687
C 6.606205750281459 5.626435424773352 9.561562648431744
C 2.7985344005004205 12.689830320985866 1.4805121000317671
C 15.357271769110367 7.029766298060842 12.438426953787085
C 14.193909530085964 17.13924775924489 11.844229417629197
C 12.40350015217816 7.028708767628411 15.296186515177114
C 6.906180578897271 9.284124005133865 8.720396760810656
C 9.978891136415058 16.055706438219275 2.6882397155834874
C 15.419223499871798 12.067666164113202 2.3885396378036
C 16.58787870901731 2.0759843994454905 1.028783210485743
C 5.0040829827810445 9.403147709285182 16.45835804691283
C 1.6626050145516775 7.61805556193962 3.4905201801652055
C 16.627023982228074 1.83896761893773 10.887390343328926
C 4.956073485445266 6.459928663933556 13.27214129820733
C 13.173388208129479 3.87438972752859 2.0585359565660175
C 10.43183764255948 10.074192498986914 9.796341046921167
C 11.055869927611235 11.406054442284196 15.30977368193123
C 16.312238163599286 11.848732484290196 6.318941115803483
C 16.996702559212842 10.670409684394182 13.616314119362473
C 8.82226572482402 8.414062024621895 16.223587362499998
C 8.175800380871262 1.9052800507261525 5.116713544333732
C 8.407031381276008 12.268686188006996 3.04342014545816
C 13.498162091398422 8.316557839711814 8.272605596763158
C 13.764926124346774 5.209038889239498 5.694010183839209
C 11.662071125219533 6.706107508961649 11.50244669422102
C 4.570282993675384 12.249425457649478 8.58260828569514
C 14.62937748464195 4.177811325729696 16.571583133439407
C 6.081561438230464 5.676689773946813 16.90195138345869
C 16.386924556456435 14.710783433191901 9.777762107762944
C 17.20358747429856 8.820568705937413 9.523444119598794
C 13.65367012728685 13.870732253661687 14.057166285736917
C 17.351644284943642 15.022425003590348 13.52450068251368
C 2.642637031696003 11.689968564952835 14.604222960865416
C 7.43085695716399 11.386649548804327 14.258814912491244
C 1.281806231958734 7.56297326067583 13.522023849589903
C 17.299320675794036 4.160828784712929 13.945145466771374
C 15.951249845179985 0.7075923382417847 15.007255194069712
C 1.823455080844083 7.308415383918875 17.575818222610696
C 9.630637754124837 9.90935543341136 5.940647093738344
C 7.007487301004929 6.699999225954422 5.665587984789506
C 16.472830888627502 7.999872603994294 5.764924842231298
C 5.7809370652124334 15.777300444009281 9.239692136129605
C 2.4718497095015803 16.673695726702416 1.9601082695099645
C 0.01480965633227841 14.533186956863844 3.9263724051491664
C 9.590538017860823 3.5282541517618218 10.801752456011448
C 11.360781777467619 2.5003578239362283 16.07635703001532
C 3.175609613987542 7.662356851677296 9.889919834662498
C 15.042965655286382 1.5597004115101167 4.432356981060862
C 1.378331750871514 14.044399524764149 7.439579459406581
C 4.3607274299405 3.2920911164689253 5.454641172748849
C 7.805839793858242 12.667011463741735 10.691904052527086
C 13.210787041066173 15.603364759830878 7.579748674841331
C 7.998890732202662 13.212313827517479 6.912745931786025
C 1.400192876921036 17.083798145037605 9.777260346639249
C 1.4120334972487065 0.6952325106861877 16.988262029317802
C 10.760343551964034 0.48813924719609797 12.732929529290217
C 5.076983523501977 1.9330416998340965 -0.1976542599657519
C 2.678213064392118 4.112400312322399 15.669409189836792
C 4.5278490617376095 17.10287827681603 15.168104451456937
C 9.500199146205567 14.008588489074219 17.574434642596742
C 10.953518470406191 3.2564245860601586 7.325474477634322
C 9.882247028381371 5.334512142191714 0.1659305213272164
C 8.706510296238486 14.940917442376836 13.987683059588973
C 8.232857236526796 0.29139143106552495 15.889186406634568
C 13.230302554880213 0.13519839882957907 1.1453517977259793
C 13.247357531944273 9.600069782440439 4.456427777341173
C 10.197159115495117 5.112892274303624 4.094552005287745
C 11.63575859951568 11.241868956123232 1.3428138769192606
C 16.35220188645398 8.367028907588148 1.8026162092943183
